"""

 A. Stagni, C. Cavallotti, S. Arunthanayothin, Y. Song,
 O. Herbinet, F. Battin-Leclerc, T. Faravelli
 "An experimental, theoretical and kinetic-modeling study of the gas-phase oxidation of ammonia"
 Reaction Chemistry and Engineering (submitted) (2020).

 Kinetic mechanism of Ammonia pyrolysis and oxidation

 Submitted to Reaction Chemistry and Engineering (November 2019)

 CHEMKIN format


 A. Stagni, C. Cavallotti, S. Arunthanayothin, Y. Song,
 O. Herbinet, F. Battin-Leclerc, T. Faravelli
 "An experimental, theoretical and kinetic-modeling study of the gas-phase oxidation of ammonia"
 Reaction Chemistry and Engineering (submitted) (2020).

 Submitted to Reaction Chemistry and Engineering (November 2019)

 Thermodynamic properties

 CHEMKIN format

VERSION:  17_03
AUTHORS:  C1-C3   Burcat
NOTE:     SPECIES RE-ARRANGED AS THE SAME ORDER IN MECH

VERSION:  17_05
Following species are updated from ATcT's Database:
 H	H2	O	O2	HE
 OH	H2O	N2	HO2	HCO
 H2O2	AR	CO	CO2
"""

units(length='cm', time='s', quantity='mol', act_energy='cal/mol')

ideal_gas(name='gas',
          elements="C H N O Ar He",
          species="""AR     N2     HE     H2     H      O2     O      H2O
                     OH     H2O2   HO2    NO     N2O    NO2    HNO    HNO2
                     HONO   HONO2  N2H2   H2NN   NH2OH  HNOH   NH3    N2H4
                     N      NO3    NH     NNH    NH2    H2NO   N2H3""",
          reactions='all',
          transport='Mix',
          initial_state=state(temperature=300.0, pressure=OneAtm))

#-------------------------------------------------------------------------------
# Species data
#-------------------------------------------------------------------------------

species(name='AR',
        atoms='Ar:1',
        thermo=(NASA([200.00, 1000.00],
                     [ 2.49988611E+00,  2.13037960E-07,  8.97320772E-10,
                      -2.31395752E-12,  1.30201393E-15, -7.45354481E+02,
                       4.38024367E+00]),
                NASA([1000.00, 6000.00],
                     [ 2.49989176E+00,  1.56134837E-07, -7.76108557E-11,
                       1.52928085E-14, -1.05304493E-18, -7.45328403E+02,
                       4.38029835E+00])),
        transport=gas_transport(geom='atom',
                                diam=3.33,
                                well_depth=136.5),
        note='ATcT3E')

species(name='N2',
        atoms='N:2',
        thermo=(NASA([200.00, 1000.00],
                     [ 3.53603521E+00, -1.58270944E-04, -4.26984251E-07,
                       2.37542590E-09, -1.39708206E-12, -1.04749645E+03,
                       2.94603724E+00]),
                NASA([1000.00, 6000.00],
                     [ 2.93802970E+00,  1.41838030E-03, -5.03281045E-07,
                       8.07555464E-11, -4.76064275E-15, -9.17180990E+02,
                       5.95521985E+00])),
        transport=gas_transport(geom='linear',
                                diam=3.621,
                                well_depth=97.53,
                                polar=1.76,
                                rot_relax=4.0),
        note='ATcT3E')

species(name='HE',
        atoms='He:1',
        thermo=(NASA([200.00, 1000.00],
                     [ 2.49976293E+00,  1.01013432E-06, -8.24578465E-10,
                      -6.85983306E-13,  7.24751856E-16, -7.45340917E+02,
                       9.29800315E-01]),
                NASA([1000.00, 6000.00],
                     [ 2.49985609E+00,  2.19365392E-07, -1.07525085E-10,
                       2.07198041E-14, -1.39358612E-18, -7.45309155E+02,
                       9.29535014E-01])),
        transport=gas_transport(geom='atom',
                                diam=2.576,
                                well_depth=10.2),
        note='ATcT3E')

species(name='H2',
        atoms='H:2',
        thermo=(NASA([200.00, 1000.00],
                     [ 2.37694204E+00,  7.73916922E-03, -1.88735073E-05,
                       1.95517114E-08, -7.17095663E-12, -9.21173081E+02,
                       5.47184736E-01]),
                NASA([1000.00, 6000.00],
                     [ 2.90207649E+00,  8.68992581E-04, -1.65864430E-07,
                       1.90851899E-11, -9.31121789E-16, -7.97948726E+02,
                      -8.45591320E-01])),
        transport=gas_transport(geom='linear',
                                diam=2.92,
                                well_depth=38.0,
                                polar=0.79,
                                rot_relax=280.0),
        note='ATcT3E')

species(name='H',
        atoms='H:1',
        thermo=(NASA([200.00, 1000.00],
                     [ 2.49975925E+00,  6.73824499E-07,  1.11807261E-09,
                      -3.70192126E-12,  2.14233822E-15,  2.54737665E+04,
                      -4.45574009E-01]),
                NASA([1000.00, 6000.00],
                     [ 2.49985211E+00,  2.34582548E-07, -1.16171641E-10,
                       2.25708298E-14, -1.52992005E-18,  2.54738024E+04,
                      -4.45864645E-01])),
        transport=gas_transport(geom='atom',
                                diam=2.05,
                                well_depth=145.0),
        note='ATcT3E')

species(name='O2',
        atoms='O:2',
        thermo=(NASA([200.00, 1000.00],
                     [ 3.78498258E+00, -3.02002233E-03,  9.92029171E-06,
                      -9.77840434E-09,  3.28877702E-12, -1.06413589E+03,
                       3.64780709E+00]),
                NASA([1000.00, 6000.00],
                     [ 3.65980488E+00,  6.59877372E-04, -1.44158172E-07,
                       2.14656037E-11, -1.36503784E-15, -1.21603048E+03,
                       3.42074148E+00])),
        transport=gas_transport(geom='linear',
                                diam=3.458,
                                well_depth=107.4,
                                polar=1.6,
                                rot_relax=3.8),
        note='ATcT3E')

species(name='O',
        atoms='O:1',
        thermo=(NASA([200.00, 1000.00],
                     [ 3.15906526E+00, -3.21509999E-03,  6.49255543E-06,
                      -5.98755115E-09,  2.06876117E-12,  2.91298453E+04,
                       2.09078344E+00]),
                NASA([1000.00, 6000.00],
                     [ 2.55160087E+00, -3.83085457E-05,  8.43197478E-10,
                       4.01267136E-12, -4.17476574E-16,  2.92287628E+04,
                       4.87617014E+00])),
        transport=gas_transport(geom='atom',
                                diam=2.75,
                                well_depth=80.0),
        note='ATcT3E')

species(name='H2O',
        atoms='H:2 O:1',
        thermo=(NASA([200.00, 1000.00],
                     [ 4.20147551E+00, -2.05583546E-03,  6.56547207E-06,
                      -5.52906960E-09,  1.78282605E-12, -3.02950066E+04,
                      -8.60610906E-01]),
                NASA([1000.00, 6000.00],
                     [ 2.73117512E+00,  2.95136995E-03, -8.35359785E-07,
                       1.26088593E-10, -8.40531676E-15, -2.99169082E+04,
                       6.55183000E+00])),
        transport=gas_transport(geom='nonlinear',
                                diam=2.605,
                                well_depth=572.4,
                                dipole=1.844,
                                rot_relax=4.0),
        note='ATcT3E')

species(name='OH',
        atoms='H:1 O:1',
        thermo=(NASA([200.00, 1000.00],
                     [ 3.97585165E+00, -2.28555291E-03,  4.33442882E-06,
                      -3.59926640E-09,  1.26706930E-12,  3.39341137E+03,
                      -3.55397262E-02]),
                NASA([1000.00, 6000.00],
                     [ 2.84581721E+00,  1.09723818E-03, -2.89121101E-07,
                       4.09099910E-11, -2.31382258E-15,  3.71706610E+03,
                       5.80339915E+00])),
        transport=gas_transport(geom='linear',
                                diam=2.75,
                                well_depth=80.0),
        note='ATcT3E')

species(name='H2O2',
        atoms='H:2 O:2',
        thermo=(NASA([200.00, 1000.00],
                     [ 4.23854160E+00, -2.49610911E-04,  1.59857901E-05,
                      -2.06919945E-08,  8.29766320E-12, -1.76486003E+04,
                       3.58850097E+00]),
                NASA([1000.00, 6000.00],
                     [ 4.54017480E+00,  4.15970971E-03, -1.30876777E-06,
                       2.00823615E-10, -1.15509243E-14, -1.79514029E+04,
                       8.55881745E-01])),
        transport=gas_transport(geom='nonlinear',
                                diam=3.458,
                                well_depth=107.4,
                                rot_relax=3.8),
        note='ATcT3E')

species(name='HO2',
        atoms='H:1 O:2',
        thermo=(NASA([200.00, 1000.00],
                     [ 4.26251250E+00, -4.45642032E-03,  2.05164934E-05,
                      -2.35794011E-08,  9.05614257E-12,  2.62442356E+02,
                       3.88223684E+00]),
                NASA([1000.00, 6000.00],
                     [ 4.10564010E+00,  2.04046836E-03, -3.65877562E-07,
                       1.85973044E-11,  4.98818315E-16,  4.32898769E+01,
                       3.30808126E+00])),
        transport=gas_transport(geom='nonlinear',
                                diam=3.458,
                                well_depth=107.4,
                                rot_relax=1.0),
        note='ATcT3E')

species(name='NO',
        atoms='N:1 O:1',
        thermo=(NASA([200.00, 1000.00],
                     [ 4.21859896E+00, -4.63988124E-03,  1.10443049E-05,
                      -9.34055507E-09,  2.80554874E-12,  9.84509964E+03,
                       2.28061001E+00]),
                NASA([1000.00, 6000.00],
                     [ 3.26071234E+00,  1.19101135E-03, -4.29122646E-07,
                       6.94481463E-11, -4.03295681E-15,  9.92143132E+03,
                       6.36900518E+00])),
        transport=gas_transport(geom='linear',
                                diam=3.621,
                                well_depth=97.5,
                                polar=1.76,
                                rot_relax=4.0),
        note='RUS89')

species(name='N2O',
        atoms='N:2 O:1',
        thermo=(NASA([200.00, 1000.00],
                     [ 2.25715020E+00,  1.13047280E-02, -1.36713190E-05,
                       9.68198030E-09, -2.93071820E-12,  8.74177460E+03,
                       1.07579920E+01]),
                NASA([1000.00, 6000.00],
                     [ 4.82307290E+00,  2.62702510E-03, -9.58508720E-07,
                       1.60007120E-10, -9.77523020E-15,  8.07340470E+03,
                      -2.20172080E+00])),
        transport=gas_transport(geom='linear',
                                diam=3.828,
                                well_depth=232.4,
                                rot_relax=1.0),
        note='L7/88')

species(name='NO2',
        atoms='N:1 O:2',
        thermo=(NASA([200.00, 1000.00],
                     [ 3.94403120E+00, -1.58542900E-03,  1.66578120E-05,
                      -2.04754260E-08,  7.83505640E-12,  2.89661800E+03,
                       6.31199190E+00]),
                NASA([1000.00, 6000.00],
                     [ 4.88475400E+00,  2.17239550E-03, -8.28069090E-07,
                       1.57475100E-10, -1.05108950E-14,  2.31649820E+03,
                      -1.17416950E-01])),
        transport=gas_transport(geom='nonlinear',
                                diam=3.5,
                                well_depth=200.0,
                                rot_relax=1.0),
        note='L7/88')

species(name='HNO',
        atoms='H:1 N:1 O:1',
        thermo=(NASA([200.00, 1000.00],
                     [ 4.53525574E+00, -5.68543377E-03,  1.85198540E-05,
                      -1.71881225E-08,  5.55818157E-12,  1.16183003E+04,
                       1.74315886E+00]),
                NASA([1000.00, 6000.00],
                     [ 3.16598124E+00,  2.99958892E-03, -3.94376786E-07,
                      -3.85344089E-11,  7.07602668E-15,  1.17726311E+04,
                       7.64511172E+00])),
        transport=gas_transport(geom='nonlinear',
                                diam=3.492,
                                well_depth=116.7,
                                rot_relax=1.0),
        note='ATcT/A')

species(name='HNO2',
        atoms='H:1 N:1 O:2',
        thermo=(NASA([200.00, 1000.00],
                     [ 4.03779347E+00, -4.46123109E-03,  3.19440815E-05,
                      -3.79359490E-08,  1.44570885E-11, -6.53088236E+03,
                       5.90620097E+00]),
                NASA([1000.00, 6000.00],
                     [ 4.66358504E+00,  4.89854351E-03, -1.79694193E-06,
                       2.94420361E-10, -1.78235577E-14, -7.25216334E+03,
                      -3.06053640E-02])),
        transport=gas_transport(geom='nonlinear',
                                diam=3.5,
                                well_depth=200.0,
                                rot_relax=1.0),
        note='ATcT3E')

species(name='HONO',
        atoms='H:1 N:1 O:2',
        thermo=(NASA([200.00, 1000.00],
                     [ 3.16416438E+00,  8.50517773E-03,  5.48561573E-07,
                      -8.27656474E-09,  4.39957151E-12, -1.07744086E+04,
                       1.00231941E+01]),
                NASA([1000.00, 6000.00],
                     [ 5.79144641E+00,  3.64630732E-03, -1.29112765E-06,
                       2.06498233E-10, -1.22138679E-14, -1.15974343E+04,
                      -4.07145349E+00])),
        transport=gas_transport(geom='nonlinear',
                                diam=3.5,
                                well_depth=200.0,
                                rot_relax=1.0),
        note='ATcT3E')

species(name='HONO2',
        atoms='H:1 N:1 O:3',
        thermo=(NASA([200.00, 1000.00],
                     [ 1.69329154E+00,  1.90167702E-02, -8.25176697E-06,
                      -6.06113827E-09,  4.65236978E-12, -1.74198909E+04,
                       1.71839838E+01]),
                NASA([1000.00, 6000.00],
                     [ 8.03098942E+00,  4.46958589E-03, -1.72459491E-06,
                       2.91556153E-10, -1.80102702E-14, -1.93138183E+04,
                      -1.62616537E+01])),
        transport=gas_transport(geom='nonlinear',
                                diam=3.5,
                                well_depth=300.0,
                                rot_relax=1.0),
        note='T8/03')

species(name='N2H2',
        atoms='H:2 N:2',
        thermo=(NASA([300.00, 1380.00],
                     [ 2.55589425E+00,  6.54339081E-03, -8.81947855E-07,
                      -1.15971304E-09,  3.97442230E-13,  2.41085081E+04,
                       9.80504705E+00]),
                NASA([1380.00, 5000.00],
                     [ 4.14686796E+00,  4.81612315E-03, -1.62748817E-06,
                       2.50556098E-10, -1.44494188E-14,  2.33444055E+04,
                       5.34122740E-01])),
        transport=gas_transport(geom='nonlinear',
                                diam=3.798,
                                well_depth=71.4,
                                rot_relax=1.0),
        note='2/13/19')

species(name='H2NN',
        atoms='H:2 N:2',
        thermo=(NASA([200.00, 1000.00],
                     [ 4.53204001E+00, -7.32418578E-03,  3.00803713E-05,
                      -3.04000551E-08,  1.04700639E-11,  3.49580003E+04,
                       1.51074195E+00]),
                NASA([1000.00, 6000.00],
                     [ 3.05903670E+00,  6.18382347E-03, -2.22171165E-06,
                       3.58539206E-10, -2.14532905E-14,  3.48530149E+04,
                       6.69893515E+00])),
        transport=gas_transport(geom='nonlinear',
                                diam=3.798,
                                well_depth=71.4,
                                rot_relax=1.0),
        note='IsodiazeneT9/11')

species(name='NH2OH',
        atoms='H:3 N:1 O:1',
        thermo=(NASA([200.00, 1000.00],
                     [ 3.21016092E+00,  6.19671676E-03,  1.10594948E-05,
                      -1.96668262E-08,  8.82516590E-12, -6.58148481E+03,
                       7.93293571E+00]),
                NASA([1000.00, 6000.00],
                     [ 3.88112502E+00,  8.15708448E-03, -2.82615576E-06,
                       4.37930933E-10, -2.52724604E-14, -6.86018419E+03,
                       3.79156136E+00])),
        transport=gas_transport(geom='nonlinear',
                                diam=3.492,
                                well_depth=116.7,
                                rot_relax=1.0),
        note='ATcT/A')

species(name='HNOH',
        atoms='H:2 N:1 O:1',
        thermo=(NASA([200.00, 1000.00],
                     [ 3.95608248E+00, -3.02611020E-03,  2.56874396E-05,
                      -3.15645120E-08,  1.24084574E-11,  1.09199790E+04,
                       5.55950983E+00]),
                NASA([1000.00, 6000.00],
                     [ 3.98321933E+00,  4.88846374E-03, -1.65086637E-06,
                       2.55371446E-10, -1.48308561E-14,  1.05780106E+04,
                       3.62582838E+00])),
        transport=gas_transport(geom='nonlinear',
                                diam=3.492,
                                well_depth=116.7,
                                rot_relax=1.0),
        note='trans&EquT11/11')

species(name='NH3',
        atoms='H:3 N:1',
        thermo=(NASA([200.00, 1000.00],
                     [ 4.14027871E+00, -3.58489142E-03,  1.89475904E-05,
                      -1.98833970E-08,  7.15267961E-12, -6.68545158E+03,
                      -1.66754883E-02]),
                NASA([1000.00, 4000.00],
                     [ 2.36074311E+00,  6.31850146E-03, -2.28966806E-06,
                       4.11767411E-10, -2.90836787E-14, -6.41596473E+03,
                       8.02154329E+00])),
        transport=gas_transport(geom='nonlinear',
                                diam=2.92,
                                well_depth=481.0,
                                dipole=1.47,
                                rot_relax=10.0),
        note='ATcT3E')

species(name='N2H4',
        atoms='H:4 N:2',
        thermo=(NASA([200.00, 1000.00],
                     [ 3.83472149E+00, -6.49129555E-04,  3.76848463E-05,
                      -5.00709182E-08,  2.03362064E-11,  1.00893925E+04,
                       5.75272030E+00]),
                NASA([1000.00, 6000.00],
                     [ 4.93957357E+00,  8.75017187E-03, -2.99399058E-06,
                       4.67278418E-10, -2.73068599E-14,  9.28265548E+03,
                      -2.69439772E+00])),
        transport=gas_transport(geom='nonlinear',
                                diam=4.23,
                                well_depth=205.0,
                                polar=4.26,
                                rot_relax=1.5),
        note='HYDRAZINEL5/90')

species(name='N',
        atoms='N:1',
        thermo=(NASA([200.00, 1000.00],
                     [ 2.50000000E+00,  0.00000000E+00,  0.00000000E+00,
                       0.00000000E+00,  0.00000000E+00,  5.61046380E+04,
                       4.19390880E+00]),
                NASA([1000.00, 6000.00],
                     [ 2.41594290E+00,  1.74890650E-04, -1.19023690E-07,
                       3.02262440E-11, -2.03609830E-15,  5.61337750E+04,
                       4.64960950E+00])),
        transport=gas_transport(geom='atom',
                                diam=3.298,
                                well_depth=71.4),
        note='L6/88')

species(name='NO3',
        atoms='N:1 O:3',
        thermo=(NASA([200.00, 1000.00],
                     [ 2.17359330E+00,  1.04902685E-02,  1.10472669E-05,
                      -2.81561867E-08,  1.36583960E-11,  7.81290905E+03,
                       1.46022090E+01]),
                NASA([1000.00, 6000.00],
                     [ 7.48347702E+00,  2.57772064E-03, -1.00945831E-06,
                       1.72314063E-10, -1.07154008E-14,  6.12990474E+03,
                      -1.41618136E+01])),
        transport=gas_transport(geom='nonlinear',
                                diam=3.5,
                                well_depth=300.0,
                                rot_relax=1.0),
        note='ATcT/A')

species(name='NH',
        atoms='H:1 N:1',
        thermo=(NASA([200.00, 1000.00],
                     [ 3.49295037E+00,  3.11795720E-04, -1.48906628E-06,
                       2.48167402E-09, -1.03570916E-12,  4.21059722E+04,
                       1.84834973E+00]),
                NASA([1000.00, 6000.00],
                     [ 2.78372644E+00,  1.32985888E-03, -4.24785573E-07,
                       7.83494442E-11, -5.50451310E-15,  4.23461945E+04,
                       5.74084863E+00])),
        transport=gas_transport(geom='linear',
                                diam=2.65,
                                well_depth=80.0,
                                rot_relax=4.0),
        note='ATcT/A')

species(name='NNH',
        atoms='H:1 N:2',
        thermo=(NASA([200.00, 1000.00],
                     [ 4.25474632E+00, -3.45098298E-03,  1.37788699E-05,
                      -1.33263744E-08,  4.41023397E-12,  2.87932080E+04,
                       3.28551762E+00]),
                NASA([1000.00, 6000.00],
                     [ 3.42744423E+00,  3.23295234E-03, -1.17296299E-06,
                       1.90508356E-10, -1.14491506E-14,  2.87676026E+04,
                       6.39209233E+00])),
        transport=gas_transport(geom='nonlinear',
                                diam=3.798,
                                well_depth=71.4,
                                rot_relax=1.0),
        note='T8/11')

species(name='NH2',
        atoms='H:2 N:1',
        thermo=(NASA([200.00, 1000.00],
                     [ 4.19198016E+00, -2.04602827E-03,  6.67756134E-06,
                      -5.24907235E-09,  1.55589948E-12,  2.11863286E+04,
                      -9.04785244E-02]),
                NASA([1000.00, 3000.00],
                     [ 2.59263049E+00,  3.47683597E-03, -1.08271624E-06,
                       1.49342558E-10, -5.75241187E-15,  2.15737320E+04,
                       7.90565351E+00])),
        transport=gas_transport(geom='nonlinear',
                                diam=2.65,
                                well_depth=80.0,
                                polar=2.26,
                                rot_relax=4.0),
        note='AMIDOGENRADIU3/03')

species(name='H2NO',
        atoms='H:2 N:1 O:1',
        thermo=(NASA([200.00, 1000.00],
                     [ 3.93201139E+00, -1.64028165E-04,  1.39161409E-05,
                      -1.62747853E-08,  6.00352834E-12,  6.71178975E+03,
                       4.58837038E+00]),
                NASA([1000.00, 6000.00],
                     [ 3.75555914E+00,  5.16219354E-03, -1.76387387E-06,
                       2.75052692E-10, -1.60643143E-14,  6.51826177E+03,
                       4.30933053E+00])),
        transport=gas_transport(geom='nonlinear',
                                diam=3.492,
                                well_depth=116.7,
                                rot_relax=1.0),
        note='RADICALT09/09')

species(name='N2H3',
        atoms='H:3 N:2',
        thermo=(NASA([200.00, 1000.00],
                     [ 3.42125505E+00,  1.34901590E-03,  2.23459071E-05,
                      -2.99727732E-08,  1.20978970E-11,  2.58198956E+04,
                       7.83176309E+00]),
                NASA([1000.00, 6000.00],
                     [ 4.04483566E+00,  7.31130186E-03, -2.47625799E-06,
                       3.83733021E-10, -2.23107573E-14,  2.53241420E+04,
                       2.88423392E+00])),
        transport=gas_transport(geom='nonlinear',
                                diam=3.9,
                                well_depth=200.0,
                                rot_relax=1.0),
        note='Rad.T7/11')

#-------------------------------------------------------------------------------
# Reaction data
#-------------------------------------------------------------------------------
# ++++++++++++++++++++++++++++++++++++++++++++++++++++++++++++++++++++++++++++++++++++++++++++++++++++++++++++++++++++++++++++++++++++++++++++++++++++++++++++++
# \KINETICS_MODULE: \H2_O2
# ++++++++++++++++++++++++++++++++++++++++++++++++++++++++++++++++++++++++++++++++++++++++++++++++++++++++++++++++++++++++++++++++++++++++++++++++++++++++++++++

# Reaction 1
three_body_reaction('H2 + M <=> H + H + M', [4.577000e+19, -1.4, 104400.0],
                    efficiencies='H2:2.5 H2O:12.0 HE:0.83')
# \AUTHOR: AK !\REF: TSANG AND HAMPSON, J. PHYS. CHEM. REF. DATA, 15:1087 (1986) !\COMMENT:
# 3RD BODY COLLIDER EFFICIENCIES

# Reaction 2
reaction('H2 + O <=> H + OH', [5.080000e+04, 2.67, 6292.0])
# \AUTHOR: AK !\REF:SUTHERLAND ET AL., 21ST SYMPOSIUM, P. 929 (1986) !\COMMENT:

# Reaction 3
reaction('H2 + OH <=> H + H2O', [4.380000e+13, 0.0, 6990.0])
# \AUTHOR: AK !\REF:LAM ET AL. SUBMITTED IJCK !\COMMENT

# Reaction 4
three_body_reaction('O + O + M <=> O2 + M', [6.165000e+15, -0.5, 0.0],
                    efficiencies='AR:0.83 H2:2.5 H2O:12.0 HE:0.83')
# \AUTHOR: AK !\REF: TSANG AND HAMPSON, J. PHYS. CHEM. REF. DATA, 15:1087 (1986) !\COMMENT:
# 3RD BODY COLLIDER EFFICIENCIES

# Reaction 5
reaction('O2 + H <=> O + OH', [1.140000e+14, 0.0, 15286.0])
# \AUTHOR: AK !\REF: HONG ET AL. PROC. OF THE COMB. INST. 33 (2011) 309-316 !\COMMENT: 2 PARAMETER FIT     ! ER_1706 +10%   (1.04 --> 1.14))

# Reaction 6
three_body_reaction('H + OH + M <=> H2O + M', [3.500000e+22, -2.0, 0.0],
                    efficiencies='AR:0.38 H2:0.73 H2O:3.65')
# \AUTHOR: AK !\REF: LI IJCK 36: 566-575, 2004 !\COMMENT:OPTIMISED TO FIT H2 AND CH4 FLAMES DATA
# 3RD BODY COLLIDER EFFICIENCIES

# Reaction 7
reaction('O + H2O <=> OH + OH', [6.700000e+07, 1.704, 14986.8])
# \AUTHOR: AK !\REF: SUTHERLAND ET AL., 23RD SYMPOSIUM, P. 51 (1990) !\COMMENT:

# Reaction 8
three_body_reaction('O + H + M <=> OH + M', [4.714000e+18, -1.0, 0.0],
                    efficiencies='AR:0.75 H2:2.5 H2O:12.0 HE:0.75')
# \AUTHOR: AK !\REF: TSANG AND HAMPSON, J. PHYS. CHEM. REF. DATA, 15:1087 (1986) !\COMMENT:
# 3RD BODY COLLIDER EFFICIENCIES

# Reaction 9
falloff_reaction('H2O2 (+ M) <=> OH + OH (+ M)',
                 kf=[2.000000e+12, 0.9, 48749.0],
                 kf0=[2.490000e+24, -2.3, 48749.0],
                 efficiencies='H2:3.7 H2O:7.65 H2O2:7.7 HE:0.65 N2:1.5 O2:1.2',
                 falloff=Troe(A=0.43, T3=1e-30, T1=1e+30))
# \AUTHOR: AK !\REF: TROE, COMBUST. FLAME, 158:594-601 (2011)!\COMMENT: RATE CONSTANT IS FOR N2, !\COMMENT: EFFICIENCIS OF H2O FROM THE SAME REF,
# LOW-PRESSURE-LIMIT
# TROE PARAMETERS
# 3RD BODY COLLIDER EFFICIENCIES

# Reaction 10
reaction('H2O2 + H <=> H2O + OH', [2.410000e+13, 0.0, 3970.0])
# \AUTHOR: AK !\REF:TSANG AND HAMPSON, J. PHYS. CHEM. REF. DATA, 15:1087 (1986) !\COMMENT:

# Reaction 11
reaction('H2O2 + H <=> H2 + HO2', [2.150000e+10, 1.0, 6000.0])
# \AUTHOR: AK !\REF: ELLINGSON J. PHYS. CHEM. (2007) 111, (51), 13554-13566 !\COMMENT:

# Reaction 12
reaction('H2O2 + O <=> OH + HO2', [9.550000e+06, 2.0, 3970.0])
# \AUTHOR: AK !\REF:TSANG AND HAMPSON, J. PHYS. CHEM. REF. DATA, 15:1087 (1986) !\COMMENT:

# Reaction 13
reaction('H2O2 + OH <=> H2O + HO2', [1.740000e+12, 0.0, 318.0],
         options='duplicate')
# \AUTHOR: AK !\REF: HONG ET AL. J. PHYS. CHEM. A 114 (2010) 5718-5727 !\COMMENT:

# Reaction 14
reaction('H2O2 + OH <=> H2O + HO2', [7.590000e+13, 0.0, 7269.0],
         options='duplicate')
# \AUTHOR: !\REF: !\COMMENT:

# Reaction 15
reaction('HO2 + H <=> OH + OH', [7.079000e+13, 0.0, 295.0])
# \AUTHOR: KPS !\REF:  !\COMMENT:

# Reaction 16
reaction('HO2 + H <=> H2 + O2', [1.140200e+10, 1.0827, 553.78])
# \AUTHOR: AK !\REF:MICHAEL SUTHERLAND 2000 !\COMMENT:

# Reaction 17
reaction('HO2 + O <=> OH + O2', [3.250000e+13, 0.0, 0.0])
# \AUTHOR: AK !\REF:BAULCH ET AL., J. PHYS. CHEM. REF DATA, 21:411 (1992)

# Reaction 18
reaction('OH + HO2 <=> H2O + O2', [7.000000e+12, 0.0, -1092.96],
         options='duplicate')
# \AUTHOR: ?? !\REF: hong pci 2013 1015C !\COMMENT: WARNING

# Reaction 19
reaction('OH + HO2 <=> H2O + O2', [4.500000e+14, 0.0, 10929.6],
         options='duplicate')
# \AUTHOR: !\REF: !\COMMENT:

# Reaction 20
reaction('HO2 + HO2 <=> H2O2 + O2', [1.000000e+14, 0.0, 11040.883],
         options='duplicate')
# \AUTHOR: AK !\REF: hong pci 2013, kapel 2002 !\COMMENT: WARNING

# Reaction 21
reaction('HO2 + HO2 <=> H2O2 + O2', [1.900000e+11, 0.0, -1408.9248],
         options='duplicate')
# \AUTHOR: !\REF: !\COMMENT:

# Reaction 22
falloff_reaction('H + O2 (+ M) <=> HO2 (+ M)',
                 kf=[4.650000e+12, 0.44, 0.0],
                 kf0=[1.737000e+19, -1.23, 0.0],
                 efficiencies='AR:0.5 H2:1.3 H2O:10.0 HE:0.64',
                 falloff=Troe(A=0.67, T3=1e-30, T1=1e+30, T2=1e+30))
# \AUTHOR: AK !\REF:FERNANDES PCCP 2008 !COMMENT: Efficiencis of AR and HE derived from seperated reactions,
# LOW-PRESSURE-LIMIT
# TROE PARAMETERS
# 3RD BODY COLLIDER EFFICIENCIES

# Reaction 23
three_body_reaction('O + OH + M <=> HO2 + M', [1.000000e+16, 0.0, 0.0])
# \AUTHOR: ?? !\REF: ?? !COMMENT: From POLIMI 1700
# ++++++++++++++++++++++++++++++++++++++++++++++++++++++++++++++++++++++++++++++++++++++++++++++++++++++++++++++++++++++++++++++++++++++++++++++++++++++++++++++
# \END_KINETICS_MODULE: \H2_O2 !++++++++++++++++++++++++++++++++++++++++++++++++++++++++++++++++++++++++++++++++++++++++++++++++++++++++++++++++++++++++++++++++++++++++++++++++++++++++++++++
# \KINETICS_MODULE: \NOx_H2O2_HT

# Reaction 24
pdep_arrhenius('NH3 <=> NH2 + H',
               [(0.1, 'atm'), 7.230000e+29, -5.316, 110862.4],
               [(1.0, 'atm'), 3.497000e+30, -5.224, 111163.3],
               [(10.0, 'atm'), 1.975000e+31, -5.155, 111887.8],
               [(100.0, 'atm'), 2.689000e+31, -4.92, 112778.7])